LTspice 24.1.6 for Windows
Circuit: C:\dev\uC\PIC\TalkoS\Cooler_Control\02_Simulation\LT-Spice\Draft1.net
Start Time: Wed Apr 30 16:40:05 2025
solver = Normal
Maximum thread count: 20
tnom = 27
temp = 27
method = modified trap
Direct Newton iteration for .op point succeeded.
Total elapsed time: 0.060 seconds.

Files loaded:
C:\dev\uC\PIC\TalkoS\Cooler_Control\02_Simulation\LT-Spice\Draft1.net
C:\Users\ziatd\AppData\Local\LTspice\lib\cmp\standard.dio

