LTspice 24.1.6 for Windows
Circuit: C:\dev\uC\PIC\TalkoS\Cooler_Control\02_Simulation\LT-Spice\OA_Filter.net
Start Time: Wed Jun  4 11:03:50 2025
solver = Normal
Maximum thread count: 20
tnom = 27
temp = 27
method = modified trap
Direct Newton iteration for .op point succeeded.
Total elapsed time: 3.220 seconds.

Files loaded:
C:\dev\uC\PIC\TalkoS\Cooler_Control\02_Simulation\LT-Spice\OA_Filter.net

